/*--------------------------------*- C++ -*----------------------------------*\
  =========                 |
  \\      /  F ield         | OpenFOAM: The Open Source CFD Toolbox
   \\    /   O peration     | Website:  https://openfoam.org
    \\  /    A nd           | Version:  6
     \\/     M anipulation  |
\*---------------------------------------------------------------------------*/
FoamFile
{
    version     2.0;
    format      ascii;
    class       dictionary;
    location    "constant";
    object      thermo.compressibleGas;
}
// * * * * * * * * * * * * * * * * * * * * * * * * * * * * * * * * * * * * * /

H
{
    specie
    {
        nMoles    1.0;
        molWeight    1.00797;
    }
    thermodynamics
    {
        Tlow    200.0;
        Thigh    6000.0;
        Tcommon    1000.0;
        highCpCoeffs    (2.5 0.0 0.0 0.0 0.0 2.547366e+04 -0.44668285);
        lowCpCoeffs    (2.5 0.0 0.0 0.0 0.0 2.547366e+04 -0.44668285);
    }
    transport
    {
        As    1.67212e-06;
        Ts    170.672;
    }
}

H2
{
    specie
    {
        nMoles    1.0;
        molWeight    2.01594;
    }
    thermodynamics
    {
        Tlow    200.0;
        Thigh    6000.0;
        Tcommon    1000.0;
        highCpCoeffs    (2.34433112 7.98052075e-03 -1.9478151e-05 2.01572094e-08 -7.37611761e-12 -917.935173 0.683010238);
        lowCpCoeffs    (2.93286575 8.26608026e-04 -1.46402364e-07 1.54100414e-11 -6.888048e-16 -813.065581 -1.02432865);
    }
    transport
    {
        As    1.67212e-06;
        Ts    170.672;
    }
}

O
{
    specie
    {
        nMoles    1.0;
        molWeight    15.9994;
    }
    thermodynamics
    {
        Tlow    200.0;
        Thigh    6000.0;
        Tcommon    1000.0;
        highCpCoeffs    (3.1682671 -3.27931884e-03 6.64306396e-06 -6.12806624e-09 2.11265971e-12 2.91222592e+04 2.05193346);
        lowCpCoeffs    (2.54363697 -2.73162486e-05 -4.1902952e-09 4.95481845e-12 -4.79553694e-16 2.9226012e+04 4.92229457);
    }
    transport
    {
        As    1.67212e-06;
        Ts    170.672;
    }
}

O2
{
    specie
    {
        nMoles    1.0;
        molWeight    31.9988;
    }
    thermodynamics
    {
        Tlow    200.0;
        Thigh    6000.0;
        Tcommon    1000.0;
        highCpCoeffs    (3.78245636 -2.99673416e-03 9.84730201e-06 -9.68129509e-09 3.24372837e-12 -1063.94356 3.65767573);
        lowCpCoeffs    (3.66096065 6.56365811e-04 -1.41149627e-07 2.05797935e-11 -1.29913436e-15 -1215.97718 3.41536279);
    }
    transport
    {
        As    1.67212e-06;
        Ts    170.672;
    }
}

OH
{
    specie
    {
        nMoles    1.0;
        molWeight    17.0074;
    }
    thermodynamics
    {
        Tlow    200.0;
        Thigh    6000.0;
        Tcommon    1000.0;
        highCpCoeffs    (3.99198424 -2.40106655e-03 4.61664033e-06 -3.87916306e-09 1.36319502e-12 3368.89836 -0.103998477);
        lowCpCoeffs    (2.83853033 1.10741289e-03 -2.94000209e-07 4.20698729e-11 -2.4228989e-15 3697.80808 5.84494652);
    }
    transport
    {
        As    1.67212e-06;
        Ts    170.672;
    }
}

H2O
{
    specie
    {
        molWeight    18.0153;
    }
    thermodynamics
    {
        Tlow    200.0;
        Thigh    6000.0;
        Tcommon    1000.0;
        highCpCoeffs    (4.1986352 -2.0364017e-03 6.5203416e-06 -5.4879269e-09 1.771968e-12 -3.0293726e+04 -0.84900901);
        lowCpCoeffs    (2.6770389 2.9731816e-03 -7.7376889e-07 9.4433514e-11 -4.2689991e-15 -2.9885894e+04 6.88255);
    }
    transport
    {
        As    1.67212e-06;
        Ts    170.672;
    }
}

AR
{
    specie
    {
        nMoles    1.0;
        molWeight    39.948;
    }
    thermodynamics
    {
        Tlow    200.0;
        Thigh    6000.0;
        Tcommon    1000.0;
        highCpCoeffs    (2.5 0.0 0.0 0.0 0.0 -745.375 4.37967491);
        lowCpCoeffs    (2.5 0.0 0.0 0.0 0.0 -745.375 4.37967491);
    }
    transport
    {
        As    1.67212e-06;
        Ts    170.672;
    }
}

H2O2
{
    specie
    {
        nMoles    1.0;
        molWeight    34.0147;
    }
    thermodynamics
    {
        Tlow    200.0;
        Thigh    6000.0;
        Tcommon    1000.0;
        highCpCoeffs    (4.31515149 -8.47390622e-04 1.76404323e-05 -2.26762944e-08 9.08950158e-12 -1.77067437e+04 3.27373319);
        lowCpCoeffs    (4.57977305 4.05326003e-03 -1.2984473e-06 1.982114e-10 -1.13968792e-14 -1.80071775e+04 0.664970694);
    }
    transport
    {
        As    1.67212e-06;
        Ts    170.672;
    }
}

HO2
{
    specie
    {
        nMoles    1.0;
        molWeight    33.0068;
    }
    thermodynamics
    {
        Tlow    200.0;
        Thigh    5000.0;
        Tcommon    1000.0;
        highCpCoeffs    (4.30179807 -4.74912097e-03 2.11582905e-05 -2.42763914e-08 9.29225225e-12 264.018485 3.7166622);
        lowCpCoeffs    (4.17228741 1.88117627e-03 -3.46277286e-07 1.94657549e-11 1.76256905e-16 31.0206839 2.95767672);
    }
    transport
    {
        As    1.67212e-06;
        Ts    170.672;
    }
}
