/*---------------------------------------------------------------------------*\
| =========                 |                                                 |
| \\      /  F ield         | OpenFOAM: The Open Source CFD Toolbox           |
|  \\    /   O peration     | Version:  1.0                                   |
|   \\  /    A nd           | Web:      http://www.openfoam.org               |
|    \\/     M anipulation  |                                                 |
\*---------------------------------------------------------------------------*/
FoamFile
{
version                         2.0;
format                          ascii;
class                           dictionary;
object                          speciesLambda;
}

// Scheme: transport fitting
// Fitted by Josh Lipman for FFCM2 Hydrogen Submechanism. 6/16/2025
// See polynomialfits.ipynb in stanford_collaboration
// Temperature range is 300 to 6000

H2
{
Lambda1	 1.568E+01	;
Lambda2	 -3.288E+00	;
Lambda3	 5.253E-01	;
Lambda4	 -2.232E-02	;
}

H
{
Lambda1	 1.378E+00	;
Lambda2	 2.684E+00	;
Lambda3	 -2.587E-01	;
Lambda4	 1.092E-02	;
}

O
{
Lambda1	 2.900E-01	;
Lambda2	 2.658E+00	;
Lambda3	 -2.939E-01	;
Lambda4	 1.420E-02	;
}

O2
{
Lambda1	 -2.930E+00	;
Lambda2	 3.337E+00	;
Lambda3	 -3.375E-01	;
Lambda4	 1.482E-02	;
}

OH
{
Lambda1	 1.604E+01	;
Lambda2	 -4.067E+00	;
Lambda3	 6.531E-01	;
Lambda4	 -2.905E-02	;
}

H2O
{
Lambda1	 1.550E+01	;
Lambda2	 -5.546E+00	;
Lambda3	 1.036E+00	;
Lambda4	 -5.243E-02	;
}

HO2
{
Lambda1	 6.100E+00	;
Lambda2	 -8.201E-01	;
Lambda3	 2.945E-01	;
Lambda4	 -1.617E-02	;
}

CH
{
Lambda1	 2.450E+01	;
Lambda2	 -7.859E+00	;
Lambda3	 1.220E+00	;
Lambda4	 -5.660E-02	;
}

CH2
{
Lambda1	 9.225E+00	;
Lambda2	 -2.103E+00	;
Lambda3	 4.772E-01	;
Lambda4	 -2.483E-02	;
}

CH2(S)
{
Lambda1	 1.019E+01	;
Lambda2	 -2.557E+00	;
Lambda3	 5.408E-01	;
Lambda4	 -2.746E-02	;
}

CH3
{
Lambda1	 5.463E+00	;
Lambda2	 -9.069E-01	;
Lambda3	 3.668E-01	;
Lambda4	 -2.176E-02	;
}

CH4
{
Lambda1	 -7.452E+00	;
Lambda2	 4.206E+00	;
Lambda3	 -3.094E-01	;
Lambda4	 8.858E-03	;
}

CO
{
Lambda1	 4.971E+00	;
Lambda2	 -1.332E-01	;
Lambda3	 1.640E-01	;
Lambda4	 -9.276E-03	;
}

CO2
{
Lambda1	 -1.532E+01	;
Lambda2	 7.616E+00	;
Lambda3	 -8.207E-01	;
Lambda4	 3.249E-02	;
}

HCO
{
Lambda1	 -5.607E+00	;
Lambda2	 3.185E+00	;
Lambda3	 -1.786E-01	;
Lambda4	 2.917E-03	;
}

CH2O
{
Lambda1	 -1.038E+01	;
Lambda2	 4.556E+00	;
Lambda3	 -2.751E-01	;
Lambda4	 3.267E-03	;
}

CH3O
{
Lambda1	 -1.772E+01	;
Lambda2	 7.719E+00	;
Lambda3	 -7.103E-01	;
Lambda4	 2.298E-02	;
}

C2H
{
Lambda1	 6.833E+00	;
Lambda2	 -1.421E+00	;
Lambda3	 4.094E-01	;
Lambda4	 -2.304E-02	;
}

C2H2
{
Lambda1	 -7.323E+00	;
Lambda2	 4.409E+00	;
Lambda3	 -3.822E-01	;
Lambda4	 1.303E-02	;
}

C2H3
{
Lambda1	 -1.150E+01	;
Lambda2	 5.619E+00	;
Lambda3	 -4.785E-01	;
Lambda4	 1.460E-02	;
}

C2H4
{
Lambda1	 -1.884E+01	;
Lambda2	 8.251E+00	;
Lambda3	 -7.837E-01	;
Lambda4	 2.634E-02	;
}

C2H5
{
Lambda1	 -1.523E+01	;
Lambda2	 6.824E+00	;
Lambda3	 -5.971E-01	;
Lambda4	 1.824E-02	;
}

C2H6
{
Lambda1	 -1.755E+01	;
Lambda2	 7.635E+00	;
Lambda3	 -6.851E-01	;
Lambda4	 2.136E-02	;
}

HCCO
{
Lambda1	 -4.360E+00	;
Lambda2	 3.765E+00	;
Lambda3	 -3.153E-01	;
Lambda4	 1.043E-02	;
}

CH2CO
{
Lambda1	 -1.308E+01	;
Lambda2	 6.073E+00	;
Lambda3	 -5.296E-01	;
Lambda4	 1.646E-02	;
}

CH3CO
{
Lambda1	 -1.673E+01	;
Lambda2	 7.265E+00	;
Lambda3	 -6.496E-01	;
Lambda4	 2.029E-02	;
}

H2CC
{
Lambda1	 -3.485E+00	;
Lambda2	 2.687E+00	;
Lambda3	 -1.304E-01	;
Lambda4	 7.991E-04	;
}

PC3H4
{
Lambda1	 -1.362E+01	;
Lambda2	 6.303E+00	;
Lambda3	 -5.567E-01	;
Lambda4	 1.752E-02	;
}

C3H3
{
Lambda1	 -9.681E+00	;
Lambda2	 5.050E+00	;
Lambda3	 -4.330E-01	;
Lambda4	 1.367E-02	;
}

N2
{
Lambda1	 7.047E+00	;
Lambda2	 -9.571E-01	;
Lambda3	 2.732E-01	;
Lambda4	 -1.407E-02	;
}

