/*---------------------------------------------------------------------------*\
| =========                 |                                                 |
| \\      /  F ield         | OpenFOAM: The Open Source CFD Toolbox           |
|  \\    /   O peration     | Version:  1.0                                   |
|   \\  /    A nd           | Web:      http://www.openfoam.org               |
|    \\/     M anipulation  |                                                 |
\*---------------------------------------------------------------------------*/
FoamFile
{
version                         2.0;
format                          ascii;
class                           dictionary;
object                          speciesMu;
}

// Scheme: transport fitting
//Fitted by Josh Lipman, Auguest 14, 2025. 300 to 6000 K

H2
{
Mu1	-1.318E+01	;
Mu2	7.120E-01	;
Mu3	-7.850E-03	;
Mu4	2.975E-04	;
}

H
{
Mu1	-1.809E+01	;
Mu2	2.647E+00	;
Mu3	-2.535E-01	;
Mu4	1.068E-02	;
}

O
{
Mu1	-1.360E+01	;
Mu2	1.280E+00	;
Mu3	-8.046E-02	;
Mu4	3.388E-03	;
}

O2
{
Mu1	-1.521E+01	;
Mu2	1.833E+00	;
Mu3	-1.508E-01	;
Mu4	6.370E-03	;
}

OH
{
Mu1	-1.357E+01	;
Mu2	1.280E+00	;
Mu3	-8.046E-02	;
Mu4	3.388E-03	;
}

H2O
{
Mu1	-1.634E+01	;
Mu2	1.150E+00	;
Mu3	5.592E-02	;
Mu4	-6.640E-03	;
}

HO2
{
Mu1	-1.519E+01	;
Mu2	1.833E+00	;
Mu3	-1.508E-01	;
Mu4	6.370E-03	;
}

CH
{
Mu1	-1.371E+01	;
Mu2	1.280E+00	;
Mu3	-8.046E-02	;
Mu4	3.388E-03	;
}

CH2
{
Mu1	-1.795E+01	;
Mu2	2.626E+00	;
Mu3	-2.508E-01	;
Mu4	1.057E-02	;
}

CH2(S)
{
Mu1	-1.795E+01	;
Mu2	2.626E+00	;
Mu3	-2.508E-01	;
Mu4	1.057E-02	;
}

CH3
{
Mu1	-1.791E+01	;
Mu2	2.626E+00	;
Mu3	-2.508E-01	;
Mu4	1.057E-02	;
}

CH4
{
Mu1	-1.770E+01	;
Mu2	2.571E+00	;
Mu3	-2.440E-01	;
Mu4	1.029E-02	;
}

CO
{
Mu1	-1.485E+01	;
Mu2	1.634E+00	;
Mu3	-1.256E-01	;
Mu4	5.302E-03	;
}

CO2
{
Mu1	-2.242E+01	;
Mu2	4.457E+00	;
Mu3	-4.754E-01	;
Mu4	1.977E-02	;
}

HCO
{
Mu1	-2.546E+01	;
Mu2	5.134E+00	;
Mu3	-5.170E-01	;
Mu4	1.990E-02	;
}

CH2O
{
Mu1	-2.545E+01	;
Mu2	5.134E+00	;
Mu3	-5.170E-01	;
Mu4	1.990E-02	;
}

CH3O
{
Mu1	-2.426E+01	;
Mu2	4.722E+00	;
Mu3	-4.699E-01	;
Mu4	1.810E-02	;
}

C2H
{
Mu1	-2.130E+01	;
Mu2	3.898E+00	;
Mu3	-4.080E-01	;
Mu4	1.706E-02	;
}

C2H2
{
Mu1	-2.128E+01	;
Mu2	3.898E+00	;
Mu3	-4.080E-01	;
Mu4	1.706E-02	;
}

C2H3
{
Mu1	-2.126E+01	;
Mu2	3.898E+00	;
Mu3	-4.080E-01	;
Mu4	1.706E-02	;
}

C2H4
{
Mu1	-2.410E+01	;
Mu2	4.923E+00	;
Mu3	-5.299E-01	;
Mu4	2.191E-02	;
}

C2H5
{
Mu1	-2.323E+01	;
Mu2	4.573E+00	;
Mu3	-4.892E-01	;
Mu4	2.032E-02	;
}

C2H6
{
Mu1	-2.321E+01	;
Mu2	4.573E+00	;
Mu3	-4.892E-01	;
Mu4	2.032E-02	;
}

HCCO
{
Mu1	-1.691E+01	;
Mu2	2.750E+00	;
Mu3	-2.664E-01	;
Mu4	1.122E-02	;
}

CH2CO
{
Mu1	-2.602E+01	;
Mu2	5.463E+00	;
Mu3	-5.715E-01	;
Mu4	2.267E-02	;
}

CH3CO
{
Mu1	-2.601E+01	;
Mu2	5.463E+00	;
Mu3	-5.715E-01	;
Mu4	2.267E-02	;
}

H2CC
{
Mu1	-2.128E+01	;
Mu2	3.898E+00	;
Mu3	-4.080E-01	;
Mu4	1.706E-02	;
}

PC3H4
{
Mu1	-2.326E+01	;
Mu2	4.569E+00	;
Mu3	-4.887E-01	;
Mu4	2.030E-02	;
}

C3H3
{
Mu1	-2.327E+01	;
Mu2	4.569E+00	;
Mu3	-4.887E-01	;
Mu4	2.030E-02	;
}

N2
{
Mu1	-1.480E+01	;
Mu2	1.623E+00	;
Mu3	-1.241E-01	;
Mu4	5.240E-03	;
}

