!***************************************************************************************
!
! Foundational Fuel Chemistry Model Version 2 (FFCM-2)
!
! - Description:
!   FFCM-2: An optimized reaction model for combustion chemistry of species up to C4
!
! - Authors:
!     Yue Zhang, Wendi Dong, Laurien A. Vandewalle, Rui Xu, Gregory P. Smith, Hai Wang
!
! - Date: 
!     July 2023
!
! - Contact:
!     Hai Wang: haiwang@stanford.edu
!
! - https://web.stanford.edu/group/haiwanglab/FFCM2/
!
! - How to cite:
! 
!   Y. Zhang, W. Dong, L. Vandewalle, R. Xu, G.P. Smith and H. Wang, Foundational Fuel Chemistry Model Version 2.0 (FFCM-2), https://web.stanford.edu/group/haiwanglab/FFCM2, 2023.
!
!  Bibtex
!  @Misc{ZDV2023,
!  author           = {Zhang, Yue and Dong, Wendi and Vandewalle, Laurien and Xu, Rui and Smith, Gregory and Wang, Hai},
!  title            = {Foundational {Fuel} {Chemistry} {Model} {Version} 2.0 ({FFCM}-2)},
!  year             = {2023},
!  modificationdate = {2023-06-28T19:14:11},
!  url              = {https://web.stanford.edu/group/haiwanglab/FFCM2/},
!  }
!
!****************************************************************************************

ELEMENTS
H  O  He  Ar  N  C
END

SPECIES
HE AR N2
H H2 O O2 OH H2O HO2 H2O2 
C CH CH2 CH2(S) CH3 CH4 CO CO2 HCO CH2O CH2OH CH3O CH3OH
C2H C2H2 C2H3 C2H4 C2H5 C2H6 HCCO CH2CO CH2CHO
CH3CHO CH3CO H2CC CH3O2 CH3OOH C2H5O2 C2H5OOH C2H2OH
C2H3OH C2H4O C2H5OH C2H4OH CH3CHOH C3H8 NC3H7 IC3H7
C3H6 C3H5 CH3CCH2 AC3H4 PC3H4 C3H3 C2H5CHO CH3COCH3
CH3COCH2 C2H3CHO C3H5OH NC3H7O2 NC3H7OOH IC3H7O2
IC3H7OOH C4H2 NC4H3 IC4H3 C4H4 NC4H5 IC4H5 C4H5-2
C4H6 C4H612 C4H6-2 C4H7 IC4H7 IC4H7-1 C4H81 C4H82
IC4H8 NC4H9 SC4H9 IC4H9 TC4H9 C4H10 IC4H10 H2C4O
CH2CHCHCHO CH3CHCHCO CH3CHCHCHO C3H7CHO IC3H7CHO
C2H5COCH3 C2H3COCH3 OH* CH*
END

REACTIONS
H+O2<=>O+OH                                         1.0399e+14  0.000  15310.00
H2+O<=>H+OH                                         3.6490e+12  0.000  7950.00
DUPLICATE
H2+O<=>H+OH                                         7.6025e+14  0.000  19180.00
DUPLICATE
H2+OH<=>H+H2O                                       2.1578e+08  1.510  3437.00
2OH<=>H2O+O                                         3.3500e+04  2.420  -1928.00
H2+M<=>2H+M                                         3.8767e+19  -1.400  104390.00
AR/0.0/  C2H2/3.0/  C2H4/3.0/  C2H5OH/4.0/  C2H6/3.0/  C3H6/4.0/  C3H8/4.0/  CH2O/2.5/  CH3OH/3.0/  CH4/2.0/  CO/1.9/  CO2/3.8/  H2/2.5/  H2O/12.0/  HE/0.0/
H2+AR<=>2H+AR                                       5.8400e+18  -1.100  104390.00
H2+HE<=>2H+HE                                       5.8400e+18  -1.100  104390.00
2O+M<=>O2+M                                         6.1600e+15  -0.500  0.00
AR/0.0/  C2H2/3.0/  C2H4/3.0/  C2H5OH/4.0/  C2H6/3.0/  C3H6/4.0/  C3H8/4.0/  CH2O/2.5/  CH3OH/3.0/  CH4/2.0/  CO/1.9/  CO2/3.8/  H2/2.5/  H2O/12.0/  HE/0.0/
2O+AR<=>O2+AR                                       1.8900e+13  0.000  -1788.00
2O+HE<=>O2+HE                                       1.8900e+13  0.000  -1788.00
H+O+M<=>OH+M                                        4.7124e+18  -1.000  0.00
AR/0.75/  C2H2/3.0/  C2H4/3.0/  C2H5OH/4.0/  C2H6/3.0/  C3H6/4.0/  C3H8/4.0/  CH2O/2.5/  CH3OH/3.0/  CH4/2.0/  CO/1.9/  CO2/3.8/  H2/2.5/  H2O/12.0/  HE/0.75/
H2O+M<=>H+OH+M                                      5.9030e+27  -3.320  120800.00
AR/1.0/  C2H2/3.0/  C2H4/3.0/  C2H6/3.0/  C3H6/4.0/  C3H8/4.0/  CH2O/2.5/  CH3OH/3.0/  CH4/7.0/  CO/1.9/  CO2/3.8/  H2/3.0/  H2O/0.0/  HE/1.1/  N2/2.0/  O2/1.5/
H2O+H2O<=>H+OH+H2O                                  1.0100e+26  -2.440  120200.00
H+O2(+M)<=>HO2(+M)                                  5.2863e+12  0.440  0.00
AR/0.6867116639685282/  C2H2/3.0/  C2H4/3.0/  C2H6/3.0/  C3H6/4.0/  C3H8/4.0/  CH2O/2.5/  CH3OH/3.0/  CH4/2.0/  CO/1.9/  CO2/2.98148670778874/  H2/2.0/  H2O/13.76974842661546/  HE/0.8/  N2/1.0/  O2/0.78/
LOW / 7.2417e+20  -1.720  525.00 /
TROE / 0.5  30.0  90000.0  90000.0 /
H+HO2<=>H2+O2                                       3.2729e+06  2.090  -1455.00
H+HO2<=>2OH                                         6.3600e+13  0.000  300.00
H+HO2<=>H2O+O                                       1.6131e+12  0.000  0.00
HO2+O<=>O2+OH                                       1.7208e+13  0.000  -445.00
HO2+OH<=>H2O+O2                                     7.6368e+12  0.000  -1093.00
DUPLICATE
HO2+OH<=>H2O+O2                                     4.5000e+14  0.000  10930.00
DUPLICATE
2HO2<=>H2O2+O2                                      1.9400e+11  0.000  -1409.00
DUPLICATE
2HO2<=>H2O2+O2                                      1.0300e+14  0.000  11040.00
DUPLICATE
H2O2(+M)<=>2OH(+M)                                  1.9252e+12  0.900  48750.00
AR/0.9859595379900199/  C2H2/3.0/  C2H4/3.0/  C2H6/3.0/  CH2O/2.5/  CH3OH/3.0/  CH4/2.0/  CO/1.5/  CO2/1.6/  H2/3.7/  H2O/7.5/  H2O2/7.7/  HE/0.65/  N2/1.5/  O2/1.2/
LOW / 2.3968e+24  -2.300  48750.00 /
TROE / 0.58  30.0  90000.0  90000.0 /
H+H2O2<=>H2O+OH                                     2.4100e+13  0.000  3970.00
H+H2O2<=>H2+HO2                                     4.8200e+13  0.000  7950.00
H2O2+O<=>HO2+OH                                     9.6300e+06  2.000  3970.00
H2O2+OH<=>H2O+HO2                                   1.7611e+12  0.000  318.00
DUPLICATE
H2O2+OH<=>H2O+HO2                                   7.6310e+13  0.000  7270.00
DUPLICATE
CO+O(+M)<=>CO2(+M)                                  1.2029e+13  -0.310  6943.00
AR/0.87/  C2H2/3.0/  C2H4/3.0/  C2H5OH/4.0/  C2H6/3.0/  C3H6/4.0/  C3H8/4.0/  CH2O/2.5/  CH3OH/3.0/  CH4/2.0/  CO/1.9/  CO2/3.8/  H2/2.5/  H2O/12.0/
LOW / 1.5888e+21  -2.100  5500.00 /
CO+O2<=>CO2+O                                       2.0406e+12  0.000  47700.00
CO+OH<=>CO2+H                                       6.7547e+04  2.050  -356.00
DUPLICATE
CO+OH<=>CO2+H                                       5.2148e+12  -0.660  332.00
DUPLICATE
CO+HO2<=>CO2+OH                                     1.5700e+05  2.180  17944.00
HCO+M<=>CO+H+M                                      5.3789e+17  -1.200  17734.00
AR/0.9683651587783325/  C2H2/3.0/  C2H4/3.0/  C2H5OH/4.0/  C2H6/3.0/  C3H6/4.0/  C3H8/4.0/  CH2O/2.5/  CH3OH/3.0/  CH4/2.0/  CO/1.5/  CO2/2.0/  H2O/12.0/  HE/1.0/
H+HCO<=>CO+H2                                       8.9578e+13  0.000  0.00
HCO+O<=>CO+OH                                       3.0100e+13  0.000  0.00
HCO+O<=>CO2+H                                       3.0100e+13  0.000  0.00
HCO+OH<=>CO+H2O                                     1.0800e+14  0.000  0.00
HCO+O2<=>CO+HO2                                     5.9024e+06  1.900  -1370.00
HCO+HO2=>CO2+H+OH                                   3.0100e+13  0.000  0.00
C+OH<=>CO+H                                         5.0000e+13  0.000  0.00
C+O2<=>CO+O                                         6.6200e+13  0.000  636.00
CH+H<=>C+H2                                         1.1000e+14  0.000  0.00
CH+O<=>CO+H                                         5.7000e+13  0.000  0.00
CH+OH<=>H+HCO                                       3.0000e+13  0.000  0.00
CH+H2<=>CH2+H                                       1.2429e+14  0.000  3320.00
CH+H2(+M)<=>CH3(+M)                                 5.1300e+13  0.150  0.00
AR/0.7/  C2H2/3.0/  C2H4/3.0/  C2H5OH/4.0/  C2H6/3.0/  C3H6/4.0/  C3H8/4.0/  CH2O/2.5/  CH3OH/3.0/  CH4/2.0/  CO/1.5/  CO2/2.0/  H2/2.0/  H2O/6.0/  HE/0.7/
LOW / 2.4300e+22  -1.600  0.00 /
TROE / 0.514  152.0  22850.0  10350.0 /
CH+H2O<=>CH2O+H                                     3.9563e+12  0.000  -884.00
CH+O2<=>HCO+O                                       1.8400e+08  1.430  1200.00
CH+O2<=>CO2+H                                       2.7700e+08  1.430  1200.00
CH+O2<=>CO+OH                                       1.8400e+08  1.430  1200.00
CH+O2=>CO+H+O                                       2.7700e+08  1.430  1200.00
CH+CO(+M)<=>HCCO(+M)                                1.0200e+15  -0.400  0.00
AR/0.7/  C2H2/3.0/  C2H4/3.0/  C2H5OH/4.0/  C2H6/3.0/  C3H6/4.0/  C3H8/4.0/  CH2O/2.5/  CH3OH/3.0/  CH4/2.0/  CO/1.5/  CO2/2.0/  H2/2.0/  H2O/6.0/  HE/0.7/
LOW / 3.2600e+24  -2.500  0.00 /
TROE / 0.4  30.0  90000.0  90000.0 /
CH+CO2<=>CO+HCO                                     6.3800e+07  1.510  -715.00
CH2+H(+M)<=>CH3(+M)                                 2.1300e+13  0.320  0.00
AR/0.7/  C2H2/3.0/  C2H4/3.0/  C2H5OH/4.0/  C2H6/3.0/  C3H6/4.0/  C3H8/4.0/  CH2O/2.5/  CH3OH/3.0/  CH4/2.0/  CO/1.5/  CO2/2.0/  H2/2.0/  H2O/6.0/  HE/0.7/
LOW / 1.3900e+34  -5.040  7400.00 /
TROE / 0.405  258.0  2811.0  9908.0 /
CH2+O=>CO+2H                                        8.7587e+13  0.000  0.00
CH2+OH<=>CH2O+H                                     3.3016e+13  0.120  -162.00
CH2+OH<=>CH+H2O                                     8.6300e+05  2.020  6776.00
CH2+HO2<=>CH2O+OH                                   2.0000e+13  0.000  0.00
CH2+H2<=>CH3+H                                      3.7908e+05  2.300  7351.00
CH2+O2=>CO+H+OH                                     2.5160e+12  0.000  1000.00
CH2+O2=>CO2+2H                                      1.6707e+12  0.000  1000.00
CH2+O2<=>CH2O+O                                     1.5700e+12  0.000  1000.00
CH2+O2<=>CO2+H2                                     1.8300e+12  0.000  1000.00
CH2+O2<=>CO+H2O                                     5.2000e+11  0.000  1000.00
C+CH2<=>C2H+H                                       5.0000e+13  0.000  0.00
CH+CH2<=>C2H2+H                                     4.0000e+13  0.000  0.00
2CH2=>C2H2+2H                                       2.0000e+14  0.000  10989.00
2CH2<=>H2+H2CC                                      1.6000e+15  0.000  11944.00
CH2(S)+N2<=>CH2+N2                                  1.2000e+13  0.000  471.00
AR+CH2(S)<=>AR+CH2                                  9.0000e+12  0.000  600.00
CH2(S)+HE<=>CH2+HE                                  6.6200e+12  0.000  755.00
CH2(S)+H<=>CH+H2                                    3.0000e+13  0.000  0.00
CH2(S)+O=>CO+2H                                     3.0000e+13  0.000  0.00
CH2(S)+OH<=>CH2O+H                                  3.0000e+13  0.000  0.00
CH2(S)+H2<=>CH3+H                                   6.8000e+13  0.000  0.00
CH2(S)+O2<=>CH2+O2                                  3.1300e+13  0.000  0.00
CH2(S)+H2O(+M)<=>CH3OH(+M)                          3.0345e+12  0.050  -1897.00
C2H2/3.0/  C2H4/3.0/  C2H5OH/4.0/  C2H6/3.0/  C3H6/4.0/  C3H8/4.0/  CH2O/2.5/  CH3OH/3.0/  CH4/2.0/  CO/1.5/  CO2/2.0/  H2/2.0/  H2O/6.0/
LOW / 1.7340e+41  -7.190  5777.00 /
TROE / 0.992  943.0  47310.0  47110.0 /
CH2(S)+H2O<=>CH2+H2O                                1.5100e+13  0.000  -431.00
CH2(S)+H2O<=>CH2O+H2                                3.3600e+22  -3.330  3950.00
PLOG / 0.1 3.3600e+22  -3.330  3950.00 /
PLOG / 1.0 4.8000e+23  -3.630  5220.00 /
PLOG / 3.0 6.8500e+23  -3.660  5820.00 /
PLOG / 10.0 1.5300e+24  -3.730  6820.00 /
PLOG / 30.0 8.7500e+23  -3.620  7655.00 /
PLOG / 100.0 1.2700e+22  -3.060  7950.00 /
CH2(S)+H2O2<=>CH3O+OH                               1.2900e+14  -0.140  0.00
CH2(S)+CO<=>CH2+CO                                  9.0000e+12  0.000  0.00
CH2(S)+CO2<=>CH2+CO2                                1.3300e+13  0.000  0.00
CH2(S)+CO2<=>CH2O+CO                                6.6200e+12  0.000  0.00
H+HCO(+M)<=>CH2O(+M)                                1.7951e+14  -0.030  -142.00
AR/0.7/  C2H2/3.0/  C2H4/3.0/  C2H5OH/4.0/  C2H6/3.0/  C3H6/4.0/  C3H8/4.0/  CH2O/2.5/  CH3OH/3.0/  CH4/2.0/  CO/1.5/  CO2/2.0/  H2/2.0/  H2O/6.0/  HE/0.7/
LOW / 4.0439e+34  -5.530  6128.00 /
TROE / 0.782  271.0  2755.0  6570.0 /
CH2O(+M)<=>CO+H2(+M)                                3.7000e+13  0.000  71980.00
AR/0.7/  C2H2/3.0/  C2H4/3.0/  C2H5OH/4.0/  C2H6/3.0/  C3H6/4.0/  C3H8/4.0/  CH2O/2.5/  CH3OH/3.0/  CH4/2.0/  CO/1.5/  CO2/2.0/  H2/2.0/  H2O/6.0/  HE/0.7/
LOW / 4.4000e+38  -6.100  94000.00 /
TROE / 0.932  197.0  1540.0  10300.0 /
CH2O+H<=>H2+HCO                                     5.3963e+12  0.360  4609.00
CH2O+H=>CO+H2+H                                     1.7316e+13  0.580  14395.00
CH2O+O<=>HCO+OH                                     7.2986e+15  -0.697  5201.80
CH2O+O=>CO+H+OH                                     2.7101e+21  -1.903  22676.00
CH2O+OH<=>H2O+HCO                                   1.2126e+10  0.975  24.66
CH2O+OH=>CO+H+H2O                                   4.0551e+11  0.692  9370.90
CH2O+O2<=>HCO+HO2                                   3.1490e+05  2.500  36460.00
CH2O+HO2<=>H2O2+HCO                                 4.9957e+04  2.500  10210.00
CH+CH2O<=>CH2CO+H                                   9.6400e+13  0.000  -517.00
CH2+CH2O<=>CH3+HCO                                  7.4000e-02  4.210  1120.00
CH2(S)+CH2O<=>CH3+HCO                               1.3300e+13  0.000  -550.00
C2H+CH2O<=>C2H2+HCO                                 5.4000e+03  2.810  5862.00
C2H3+CH2O<=>C2H4+HCO                                5.4000e+03  2.810  5862.00
CH3+H(+M)<=>CH4(+M)                                 2.1231e+14  0.000  0.00
AR/0.7411522103103376/  C2H2/3.0/  C2H4/3.0/  C2H5OH/4.0/  C2H6/3.0/  C3H6/4.0/  C3H8/4.0/  CH2O/2.5/  CH3OH/3.0/  CH4/2.0/  CO/1.5/  CO2/2.0/  H2/2.0/  H2O/5.56253976195153/  HE/0.7/
LOW / 1.2779e+36  -5.570  3818.00 /
TROE / 0.37  3315.0  61.0  90000.0 /
CH3+O<=>CH2O+H                                      5.7625e+13  0.000  0.00
CH3+O=>CO+H+H2                                      2.3100e+13  0.000  0.00
CH3+OH(+M)<=>CH3OH(+M)                              6.2100e+13  -0.020  -33.00
C2H2/3.0/  C2H4/3.0/  C2H5OH/4.0/  C2H6/3.0/  C3H6/4.0/  C3H8/4.0/  CH2O/2.5/  CH3OH/3.0/  CH4/2.0/  CO/1.5/  CO2/2.0/  H2/2.0/  H2O/6.0/
LOW / 7.2400e+36  -6.000  3226.00 /
TROE / 0.185  156.0  1675.0  4530.0 /
CH3+OH<=>CH2+H2O                                    4.2900e+04  2.570  3998.00
CH3+OH<=>CH2(S)+H2O                                 5.1997e+16  -1.120  1620.00
PLOG / 0.1 5.1997e+16  -1.120  1620.00 /
PLOG / 1.0 8.6910e+16  -1.160  2765.00 /
PLOG / 3.0 1.0622e+16  -0.870  3100.00 /
PLOG / 10.0 1.4856e+14  -0.310  3170.00 /
PLOG / 30.0 4.1004e+11  0.440  2880.00 /
PLOG / 100.0 7.2871e+10  0.660  3793.00 /
CH3+OH<=>CH2O+H2                                    3.9441e+11  0.140  -483.00
PLOG / 0.1 3.9441e+11  0.140  -483.00 /
PLOG / 1.0 1.4390e+13  -0.270  1284.00 /
PLOG / 3.0 8.9754e+13  -0.470  2446.00 /
PLOG / 10.0 1.6309e+14  -0.510  3615.00 /
PLOG / 30.0 1.0660e+13  -0.140  4100.00 /
PLOG / 100.0 1.9614e+10  0.680  3960.00 /
CH3+HO2<=>CH4+O2                                    8.4356e+04  2.230  -3022.00
CH3+HO2<=>CH3O+OH                                   7.6190e+12  0.000  -590.00
CH3+O2<=>CH3O+O                                     8.2587e+12  0.000  28297.00
CH3+O2<=>CH2O+OH                                    1.1718e+02  2.860  9768.00
C+CH3<=>C2H2+H                                      5.0000e+13  0.000  0.00
CH+CH3<=>C2H3+H                                     3.7169e+13  0.000  0.00
CH2+CH3<=>C2H4+H                                    1.1270e+14  0.000  0.00
CH2(S)+CH3<=>C2H4+H                                 1.4000e+13  0.000  -497.00
2CH3(+M)<=>C2H6(+M)                                 2.0402e+16  -0.970  620.00
AR/0.7/  C2H2/3.0/  C2H4/3.0/  C2H5OH/4.0/  C2H6/3.0/  C3H6/4.0/  C3H8/4.0/  CH2O/2.5/  CH3OH/3.0/  CH4/2.0/  CO/1.5/  CO2/2.0/  H2/2.0/  H2O/6.0/  HE/0.7/
LOW / 1.7034e+50  -9.670  6220.00 /
TROE / 0.532  151.0  1038.0  4970.0 /
2CH3<=>C2H5+H                                       9.3694e+12  0.070  11135.00
PLOG / 0.1 9.3694e+12  0.070  11135.00 /
PLOG / 1.0 3.1455e+12  0.230  12000.00 /
PLOG / 3.0 1.7534e+11  0.600  12200.00 /
PLOG / 10.0 7.1342e+08  1.290  12000.00 /
PLOG / 30.0 7.2814e+05  2.190  11400.00 /
PLOG / 100.0 1.3385e+02  3.180  10500.00 /
CH3+HCO<=>CH4+CO                                    2.6200e+13  0.000  0.00
CH2O+CH3<=>CH4+HCO                                  3.4780e+01  3.360  4310.00
CH3O(+M)<=>CH2O+H(+M)                               1.1300e+10  1.210  24080.00
AR/0.85/  C2H2/3.0/  C2H4/3.0/  C2H5OH/4.0/  C2H6/3.0/  C3H6/4.0/  C3H8/4.0/  CH2O/2.5/  CH3OH/3.0/  CH4/2.0/  CO/1.5/  CO2/2.0/  H2/2.0/  H2O/6.0/  HE/0.67/
LOW / 6.0200e+16  -0.550  18020.00 /
TROE / 0.341  28.0  1000.0  2339.0 /
CH3O+H(+M)<=>CH3OH(+M)                              2.4400e+11  0.760  0.00
C2H2/3.0/  C2H4/3.0/  C2H5OH/4.0/  C2H6/3.0/  C3H6/4.0/  C3H8/4.0/  CH2O/2.5/  CH3OH/3.0/  CH4/2.0/  CO/1.5/  CO2/2.0/  H2/2.0/  H2O/6.0/
LOW / 6.7000e+40  -7.380  9177.00 /
TROE / 0.684  37050.0  41490.0  3980.0 /
CH3O+H<=>CH2OH+H                                    1.2900e+07  1.820  -703.00
CH3O+H<=>CH2O+H2                                    3.7900e+13  0.000  596.00
CH3O+H<=>CH3+OH                                     3.8800e+14  -0.260  -26.00
CH3O+H<=>CH2(S)+H2O                                 1.9700e+11  0.410  243.00
CH3O+O<=>CH2O+OH                                    3.7800e+12  0.000  0.00
CH3O+OH<=>CH2O+H2O                                  1.8100e+13  0.000  0.00
CH3O+HO2<=>CH2O+H2O2                                3.0100e+11  0.000  0.00
CH3O+HO2<=>CH3OH+O2                                 3.0100e+11  0.000  0.00
CH3O+O2<=>CH2O+HO2                                  6.3200e+10  0.000  2603.00
CH3+CH3O<=>CH2O+CH4                                 2.4000e+13  0.000  0.00
CH3O+CO<=>CH3+CO2                                   6.0000e+12  0.000  11000.00
CH2OH(+M)<=>CH2O+H(+M)                              7.4868e+10  0.810  39580.00
AR/0.85/  C2H2/3.0/  C2H4/3.0/  C2H5OH/4.0/  C2H6/3.0/  C3H6/4.0/  C3H8/4.0/  CH2O/2.5/  CH3OH/3.0/  CH4/2.0/  CO/1.5/  CO2/2.0/  H2/2.0/  H2O/6.0/  HE/0.67/
LOW / 3.0577e+13  0.180  17230.00 /
TROE / 0.001  50.0  600.0  2780.0 /
CH2OH+H(+M)<=>CH3OH(+M)                             6.6700e+10  0.960  0.00
C2H2/3.0/  C2H4/3.0/  C2H5OH/4.0/  C2H6/3.0/  C3H6/4.0/  C3H8/4.0/  CH2O/2.5/  CH3OH/3.0/  CH4/2.0/  CO/1.5/  CO2/2.0/  H2/2.0/  H2O/6.0/
LOW / 1.3400e+41  -7.380  9177.00 /
TROE / 0.684  37050.0  41490.0  3980.0 /
CH2OH+H<=>CH2O+H2                                   2.4400e+13  0.000  0.00
CH2OH+H<=>CH3+OH                                    1.9176e+13  0.200  -241.00
CH2OH+H<=>CH2(S)+H2O                                1.2800e+11  0.520  215.00
CH2OH+O<=>CH2O+OH                                   9.0300e+13  0.000  0.00
CH2OH+OH<=>CH2O+H2O                                 2.4100e+13  0.000  0.00
CH2OH+HO2<=>CH2O+H2O2                               1.2100e+13  0.000  0.00
CH2OH+O2<=>CH2O+HO2                                 7.2300e+13  0.000  3736.00
CH2OH+CH3<=>CH2O+CH4                                2.4000e+13  0.000  0.00
CH4+H<=>CH3+H2                                      6.9485e+05  2.500  9588.00
CH4+O<=>CH3+OH                                      6.9300e+08  1.560  8485.00
CH4+OH<=>CH3+H2O                                    1.0000e+06  2.180  2446.00
CH4+HO2<=>CH3+H2O2                                  3.9686e+04  2.500  21000.00
CH+CH4<=>C2H4+H                                     3.0000e+13  0.000  -397.00
CH2+CH4<=>2CH3                                      2.4600e+06  2.000  8270.00
CH2(S)+CH4<=>2CH3                                   1.8700e+13  0.000  -497.00
C2H+CH4<=>C2H2+CH3                                  1.3000e+13  0.000  600.00
CH3OH+H<=>CH2OH+H2                                  2.0965e+06  2.350  5912.00
CH3OH+H<=>CH3O+H2                                   5.1302e+06  2.150  11134.00
CH3OH+O<=>CH2OH+OH                                  2.4700e+13  0.000  5306.00
CH3OH+O<=>CH3O+OH                                   8.2000e+12  0.000  9040.00
CH3OH+OH<=>CH2OH+H2O                                1.4200e+05  2.370  -965.20
CH3OH+OH<=>CH3O+H2O                                 1.5076e+04  2.700  53.30
CH3OH+O2<=>CH2OH+HO2                                3.9681e+05  2.270  42760.00
CH3OH+HO2<=>CH2OH+H2O2                              5.8074e-05  5.160  10160.00
CH3OH+HO2<=>CH3O+H2O2                               2.8800e-01  4.030  18170.00
CH+CH3OH<=>CH2O+CH3                                 9.0400e+18  -1.930  0.00
CH2+CH3OH<=>CH2OH+CH3                               3.5400e-04  4.190  3600.00
CH2+CH3OH<=>CH3+CH3O                                1.3700e-04  4.260  5630.00
CH2(S)+CH3OH<=>CH3+CH3O                             7.0000e+12  0.000  -550.00
CH2(S)+CH3OH<=>CH2OH+CH3                            2.0000e+13  0.000  -550.00
CH3+CH3OH<=>CH2OH+CH4                               3.3200e+02  3.030  8720.00
CH3+CH3OH<=>CH3O+CH4                                1.0700e+04  2.270  8710.00
C2H+CH3OH<=>C2H2+CH2OH                              6.0000e+12  0.000  0.00
C2H+CH3OH<=>C2H2+CH3O                               1.2000e+12  0.000  0.00
C2H3+CH3OH<=>C2H4+CH2OH                             3.2000e+01  3.200  7175.00
C2H3+CH3OH<=>C2H4+CH3O                              1.4500e+01  3.100  6940.00
CH3+O2(+M)<=>CH3O2(+M)                              7.8300e+08  1.200  0.00
AR/0.7/  C2H2/3.0/  C2H4/3.0/  C2H5OH/4.0/  C2H6/3.0/  C3H6/4.0/  C3H8/4.0/  CH2O/2.5/  CH3OH/3.0/  CH4/2.0/  CO/1.5/  CO2/2.0/  H2/2.0/  H2O/6.0/  HE/0.7/
LOW / 5.8000e+25  -3.300  0.00 /
TROE / 0.487  30.0  2594.0  6266.0 /
2CH3O2=>2CH3O+O2                                    5.3800e+13  -0.890  863.00
2CH3O2=>CH2O+CH3OH+O2                               1.1100e+11  -0.490  -1768.00
CH3OOH(+M)<=>CH3O+OH(+M)                            4.0500e+19  -1.150  44260.00
AR/0.7/  C2H2/3.0/  C2H4/3.0/  C2H5OH/4.0/  C2H6/3.0/  C3H6/4.0/  C3H8/4.0/  CH2O/2.5/  CH3OH/3.0/  CH4/2.0/  CO/1.5/  CO2/2.0/  H2/2.0/  H2O/6.0/  HE/0.7/
LOW / 3.8900e+42  -7.500  46760.00 /
TROE / 0.838  36560.0  499.0  9990.0 /
CH3O2+H<=>CH3O+OH                                   9.6400e+13  0.000  0.00
CH3O2+O<=>CH3O+O2                                   1.2200e+13  0.000  -445.00
CH3O2+OH<=>CH3O+HO2                                 5.1100e+15  -0.810  0.00
CH3O2+O2=>CO+H2O+HO2                                4.6700e+02  2.900  41470.00
CH3O2+O2=>CH2O+OH+O2                                1.9747e+13  0.000  17420.00
CH3O2+HO2<=>CH3OOH+O2                               2.2800e+11  0.000  -1490.00
CH3O2+HO2=>CH2O+H2O+O2                              2.5300e+10  0.000  -1490.00
CH3O2+CO<=>CH3O+CO2                                 1.5700e+05  2.180  17940.00
CH3+CH3O2<=>2CH3O                                   4.7253e+12  0.000  -1410.00
CH3O2+CH4<=>CH3+CH3OOH                              1.8100e+11  0.000  18480.00
C2H3+CH3O2<=>C2H2+CH3OOH                            3.0100e+11  0.000  0.00
C2H3+CH3O2<=>CH2CHO+CH3O                            2.4100e+13  0.000  0.00
C2H4+CH3O2<=>C2H4O+CH3O                             3.7900e+12  0.000  17865.00
CH3OOH+H<=>CH3O2+H2                                 8.7700e+10  0.000  1860.00
CH3OOH+H<=>CH3O+H2O                                 7.2500e+10  0.000  1860.00
CH3OOH+H=>CH2O+H2+OH                                8.4300e+09  0.000  1860.00
CH3OOH+O<=>CH3O2+OH                                 2.0000e+12  0.000  4890.00
CH3OOH+O=>CH2O+2OH                                  2.2700e+13  0.000  4890.00
CH3OOH+O2=>CH2O+HO2+OH                              3.5800e+05  2.270  42760.00
CH3OOH+OH<=>CH3O2+H2O                               1.0700e+12  0.000  -437.00
CH3OOH+OH=>CH2O+H2O+OH                              7.2300e+11  0.000  -258.00
CH3OOH+HO2<=>CH3O2+H2O2                             4.1100e+04  2.500  10206.00
CH3+CH3OOH=>CH2O+CH4+OH                             3.3200e+02  3.030  8720.00
C2H+O<=>CH+CO                                       5.4000e+13  0.000  0.00
C2H+O2<=>CO+HCO                                     1.6300e+14  -0.350  0.00
H+HCCO<=>CH2(S)+CO                                  1.3200e+14  0.000  0.00
C2H+OH<=>H+HCCO                                     2.0000e+13  0.000  0.00
HCCO+O=>2CO+H                                       1.7300e+14  -0.110  0.00
HCCO+O<=>CH+CO2                                     2.9500e+13  0.000  1113.00
HCCO+O2=>CO+CO2+H                                   2.1074e+12  0.000  854.00
HCCO+OH=>CH2O+CO                                    1.2316e+16  -0.590  145.00
HCCO+OH=>CO+H+HCO                                   5.6978e+13  0.130  -215.00
CH+HCCO<=>C2H2+CO                                   5.0000e+13  0.000  0.00
CH2+HCCO<=>C2H3+CO                                  3.0000e+13  0.000  0.00
2HCCO=>C2H2+2CO                                     1.0000e+13  0.000  0.00
C2H2(+M)<=>H2CC(+M)                                 1.0055e+15  -0.520  50750.00
AR/0.7/  C2H2/3.0/  C2H4/3.0/  C2H5OH/4.0/  C2H6/3.0/  C3H6/4.0/  C3H8/4.0/  CH2O/2.5/  CH3OH/3.0/  CH4/2.0/  CO/1.5/  CO2/2.0/  H2/2.0/  H2O/6.0/  HE/0.7/
LOW / 3.0795e+15  -0.640  49700.00 /
C2H+H2<=>C2H2+H                                     1.9438e+06  2.320  882.00
C2H+H(+M)<=>C2H2(+M)                                2.2500e+13  0.320  0.00
AR/0.7/  C2H2/3.0/  C2H4/3.0/  C2H5OH/4.0/  C2H6/3.0/  C3H6/4.0/  C3H8/4.0/  CH2O/2.5/  CH3OH/3.0/  CH4/2.0/  CO/1.5/  CO2/2.0/  H2/2.0/  H2O/6.0/  HE/0.7/
LOW / 3.7500e+33  -4.800  1900.00 /
TROE / 0.646  13.2  1315.0  5566.0 /
C2H2+O<=>H+HCCO                                     9.6504e+08  1.400  2206.00
C2H2+O<=>CH2+CO                                     1.9961e+08  1.400  2206.00
C2H2+OH<=>CH2CO+H                                   1.7405e+04  2.280  -292.00
PLOG / 0.025 1.7405e+04  2.280  -292.00 /
PLOG / 0.1 3.4581e+05  1.920  598.00 /
PLOG / 1.0 8.6222e+06  1.550  2106.00 /
PLOG / 10.0 5.8398e+06  1.650  3400.00 /
PLOG / 100.0 1.6718e+04  2.450  4477.00 /
C2H2+OH<=>C2H+H2O                                   2.6300e+06  2.140  17060.00
C2H2+OH<=>CH3+CO                                    4.3700e+06  1.400  227.00
PLOG / 0.025 4.3700e+06  1.400  227.00 /
PLOG / 0.1 7.6500e+07  1.050  1115.00 /
PLOG / 1.0 1.2800e+09  0.730  2580.00 /
PLOG / 10.0 4.3100e+08  0.920  3736.00 /
PLOG / 100.0 8.2500e+05  1.770  4700.00 /
C2H2+HO2<=>CH2CO+OH                                 7.7500e+06  1.600  15300.00
C2H2+HO2=>H+HCCO+OH                                 2.1672e+07  1.600  15300.00
H+H2CC<=>C2H2+H                                     5.0000e+13  0.000  0.00
H2CC+OH<=>CH2CO+H                                   2.0000e+13  0.000  0.00
H2CC+O2<=>2HCO                                      6.0722e+12  0.000  0.00
CH2+CO(+M)<=>CH2CO(+M)                              8.8063e+11  0.500  4510.00
AR/0.7/  C2H2/3.0/  C2H4/3.0/  C2H5OH/4.0/  C2H6/3.0/  C3H6/4.0/  C3H8/4.0/  CH2O/2.5/  CH3OH/3.0/  CH4/2.0/  CO/1.5/  CO2/2.0/  H2/2.0/  H2O/6.0/  HE/0.7/
LOW / 2.9246e+33  -5.110  7095.00 /
TROE / 0.591  275.0  1226.0  5185.0 /
CH2CO+H<=>H2+HCCO                                   4.2000e+07  1.900  11850.00
CH2CO+H<=>CH3+CO                                    6.4437e+08  1.450  2780.00
CH2CO+O<=>HCCO+OH                                   1.0000e+13  0.000  10300.00
CH2CO+O<=>CH2+CO2                                   1.0800e+12  0.000  1351.00
CH2CO+O<=>2HCO                                      3.6100e+11  0.000  1351.00
CH2CO+O<=>CH2O+CO                                   3.2638e+11  0.000  1351.00
CH2CO+OH<=>H2O+HCCO                                 1.4854e+04  2.740  2220.00
CH2CO+OH<=>CH3+CO2                                  6.2568e+11  0.000  -1013.00
CH2CO+OH<=>CH2OH+CO                                 1.8261e+12  0.000  -1013.00
CH+CH2CO<=>C2H3+CO                                  1.4500e+14  0.000  0.00
C2H2+H(+M)<=>C2H3(+M)                               4.2047e+08  1.640  2096.00
AR/0.7/  C2H2/3.0/  C2H4/3.0/  C2H5OH/4.0/  C2H6/3.0/  C3H6/4.0/  C3H8/4.0/  CH2O/2.5/  CH3OH/3.0/  CH4/2.0/  CO/1.5/  CO2/2.0/  H2/2.0/  H2O/6.0/  HE/0.7/
LOW / 2.7551e+27  -3.380  847.00 /
TROE / 0.215  10.7  1043.0  2341.0 /
C2H3+H<=>C2H2+H2                                    1.2100e+12  0.000  0.00
C2H3+H<=>H2+H2CC                                    6.9378e+13  0.000  0.00
C2H3+O<=>CH2CO+H                                    3.3016e+13  0.000  0.00
C2H3+OH<=>C2H2+H2O                                  2.2672e+13  0.000  0.00
C2H3+OH<=>CH3+HCO                                   1.7585e+13  0.000  0.00
C2H3+OH<=>CH3CO+H                                   1.1400e+12  0.000  1400.00
C2H3+OH<=>CH2CHO+H                                  4.1800e+13  0.000  2870.00
C2H3+OH<=>CH4+CO                                    2.8600e+11  0.000  1120.00
C2H3+O2<=>CH2CHO+O                                  1.5283e+11  0.320  360.00
PLOG / 0.1 1.5283e+11  0.320  360.00 /
PLOG / 1.0 1.1147e+12  0.080  1020.00 /
PLOG / 3.16 2.5351e+12  -0.020  1530.00 /
PLOG / 10.0 9.7089e+12  -0.160  2460.00 /
PLOG / 31.6 7.7312e+12  -0.100  3340.00 /
PLOG / 100.0 2.9846e+11  0.340  3750.00 /
C2H3+O2<=>C2H2+HO2                                  4.3400e+03  2.300  590.00
PLOG / 0.1 4.3400e+03  2.300  590.00 /
PLOG / 1.0 5.6000e+04  1.990  1362.00 /
PLOG / 3.16 9.4100e+04  1.940  1720.00 /
PLOG / 10.0 1.1300e+06  1.650  2820.00 /
PLOG / 31.6 5.0000e+06  1.490  3975.00 /
PLOG / 100.0 1.5700e+06  1.670  4820.00 /
C2H3+O2<=>CH2O+HCO                                  4.5325e+16  -1.550  1000.00
PLOG / 0.1 4.5325e+16  -1.550  1000.00 /
PLOG / 1.0 1.7664e+17  -1.710  1391.00 /
PLOG / 3.16 4.5713e+17  -1.820  1890.00 /
PLOG / 10.0 9.7056e+17  -1.890  2745.00 /
PLOG / 31.6 1.7567e+17  -1.640  3360.00 /
PLOG / 100.0 6.6580e+14  -0.920  3300.00 /
C2H3+O2=>CH2O+CO+H                                  8.7056e+16  -1.550  1000.00
PLOG / 0.1 8.7056e+16  -1.550  1000.00 /
PLOG / 1.0 3.3944e+17  -1.710  1391.00 /
PLOG / 3.16 8.7855e+17  -1.820  1890.00 /
PLOG / 10.0 1.8689e+18  -1.890  2745.00 /
PLOG / 31.6 3.3704e+17  -1.640  3360.00 /
PLOG / 100.0 1.2779e+15  -0.920  3300.00 /
C2H3+O2=>CO+H2+HCO                                  6.5600e+12  -0.470  45.00
PLOG / 0.1 6.5600e+12  -0.470  45.00 /
PLOG / 1.0 1.0000e+13  -0.510  236.00 /
PLOG / 3.16 6.3200e+13  -0.730  965.00 /
PLOG / 10.0 2.3400e+14  -0.880  1916.00 /
PLOG / 31.6 5.3600e+13  -0.650  2600.00 /
PLOG / 100.0 6.6200e+11  -0.070  2840.00 /
C2H3+O2=>H+HCCO+OH                                  1.1600e+10  0.280  805.00
PLOG / 0.1 1.1600e+10  0.280  805.00 /
PLOG / 1.0 1.7400e+11  -0.050  1691.00 /
PLOG / 3.16 9.4000e+11  -0.240  2454.00 /
PLOG / 10.0 1.7800e+13  -0.580  3875.00 /
PLOG / 31.6 8.8000e+13  -0.740  5400.00 /