"""
**************************************************************************************

 A reduced model for ethylene air detonation simulation.


 Ethylene-air combustion model with am emphasis on predicting detonation (~50 bar)
 and deflagration (3 bar), extracted and calibrated against FFCMY-9a.

 Rui Xu, Yue Zhang, Hai Wang, Stanford University
 March 2020
 Please contact Hai Wang at haiwang@stanford.edu for questions and comments.

**************************************************************************************
"""

units(length='cm', time='s', quantity='mol', act_energy='cal/mol')

ideal_gas(name='gas',
          elements="H C N O",
          species="""H2      H       O       O2      OH      H2O     HO2
                     CH      CH2     CH2(S)  CH3     CH4     CO      CO2
                     HCO     CH2O    CH3O    C2H     C2H2    C2H3    C2H4
                     C2H5    C2H6    HCCO    CH2CO   CH3CO   H2CC    PC3H4
                     C3H3    N2""",
          reactions='all',
          transport='Mix',
          initial_state=state(temperature=300.0, pressure=OneAtm))

#-------------------------------------------------------------------------------
# Species data
#-------------------------------------------------------------------------------

species(name=u'H2',
        atoms='H:2',
        thermo=(NASA([200.00, 1000.00],
                     [ 2.34433112E+00,  7.98052075E-03, -1.94781510E-05,
                       2.01572094E-08, -7.37611761E-12, -9.17935173E+02,
                       6.83010238E-01]),
                NASA([1000.00, 6000.00],
                     [ 2.93286575E+00,  8.26608026E-04, -1.46402364E-07,
                       1.54100414E-11, -6.88804800E-16, -8.13065581E+02,
                      -1.02432865E+00])),
        transport=gas_transport(geom='linear',
                                diam=2.92,
                                well_depth=38.0,
                                polar=0.79,
                                rot_relax=280.0),
        note=u'tpis78')

species(name=u'H',
        atoms='H:1',
        thermo=(NASA([200.00, 1000.00],
                     [ 2.50000000E+00,  0.00000000E+00,  0.00000000E+00,
                       0.00000000E+00,  0.00000000E+00,  2.54736600E+04,
                      -4.46682850E-01]),
                NASA([1000.00, 6000.00],
                     [ 2.50000000E+00,  0.00000000E+00,  0.00000000E+00,
                       0.00000000E+00,  0.00000000E+00,  2.54736600E+04,
                      -4.46682850E-01])),
        transport=gas_transport(geom='atom',
                                diam=2.05,
                                well_depth=145.0),
        note=u'L6/94')

species(name=u'O',
        atoms='O:1',
        thermo=(NASA([200.00, 1000.00],
                     [ 3.16826710E+00, -3.27931884E-03,  6.64306396E-06,
                      -6.12806624E-09,  2.11265971E-12,  2.91222592E+04,
                       2.05193346E+00]),
                NASA([1000.00, 6000.00],
                     [ 2.54363697E+00, -2.73162486E-05, -4.19029520E-09,
                       4.95481845E-12, -4.79553694E-16,  2.92260120E+04,
                       4.92229457E+00])),
        transport=gas_transport(geom='atom',
                                diam=2.75,
                                well_depth=80.0),
        note=u'L1/90')

species(name=u'O2',
        atoms='O:2',
        thermo=(NASA([200.00, 1000.00],
                     [ 3.78245636E+00, -2.99673416E-03,  9.84730201E-06,
                      -9.68129509E-09,  3.24372837E-12, -1.06394356E+03,
                       3.65767573E+00]),
                NASA([1000.00, 6000.00],
                     [ 3.66096065E+00,  6.56365811E-04, -1.41149627E-07,
                       2.05797935E-11, -1.29913436E-15, -1.21597718E+03,
                       3.41536279E+00])),
        transport=gas_transport(geom='linear',
                                diam=3.458,
                                well_depth=107.4,
                                polar=1.6,
                                rot_relax=3.8),
        note=u'RUS89')

species(name=u'OH',
        atoms='H:1 O:1',
        thermo=(NASA([200.00, 1000.00],
                     [ 3.99198424E+00, -2.40106655E-03,  4.61664033E-06,
                      -3.87916306E-09,  1.36319502E-12,  3.36889836E+03,
                      -1.03998477E-01]),
                NASA([1000.00, 6000.00],
                     [ 2.83853033E+00,  1.10741289E-03, -2.94000209E-07,
                       4.20698729E-11, -2.42289890E-15,  3.69780808E+03,
                       5.84494652E+00])),
        transport=gas_transport(geom='linear',
                                diam=2.75,
                                well_depth=80.0),
        note=u'IU3/03')

species(name=u'H2O',
        atoms='H:2 O:1',
        thermo=(NASA([200.00, 1000.00],
                     [ 4.19863520E+00, -2.03640170E-03,  6.52034160E-06,
                      -5.48792690E-09,  1.77196800E-12, -3.02937260E+04,
                      -8.49009010E-01]),
                NASA([1000.00, 6000.00],
                     [ 2.67703890E+00,  2.97318160E-03, -7.73768890E-07,
                       9.44335140E-11, -4.26899910E-15, -2.98858940E+04,
                       6.88255000E+00])),
        transport=gas_transport(geom='nonlinear',
                                diam=2.605,
                                well_depth=572.4,
                                dipole=1.844,
                                rot_relax=4.0),
        note=u'L5/89')

species(name=u'HO2',
        atoms='H:1 O:2',
        thermo=(NASA([200.00, 1000.00],
                     [ 4.30179807E+00, -4.74912097E-03,  2.11582905E-05,
                      -2.42763914E-08,  9.29225225E-12,  2.64018485E+02,
                       3.71666220E+00]),
                NASA([1000.00, 5000.00],
                     [ 4.17228741E+00,  1.88117627E-03, -3.46277286E-07,
                       1.94657549E-11,  1.76256905E-16,  3.10206839E+01,
                       2.95767672E+00])),
        transport=gas_transport(geom='nonlinear',
                                diam=3.458,
                                well_depth=107.4,
                                rot_relax=1.0),
        note=u'T1/09')

species(name=u'CH',
        atoms='H:1 C:1',
        thermo=(NASA([200.00, 1000.00],
                     [ 3.48975830E+00,  3.24321600E-04, -1.68997510E-06,
                       3.16284200E-09, -1.40618030E-12,  7.06126460E+04,
                       2.08428410E+00]),
                NASA([1000.00, 6000.00],
                     [ 2.52093690E+00,  1.76536390E-03, -4.61476600E-07,
                       5.92896750E-11, -3.34745010E-15,  7.09467690E+04,
                       7.40518290E+00])),
        transport=gas_transport(geom='linear',
                                diam=2.75,
                                well_depth=80.0,
                                rot_relax=1.0),
        note=u'IU3/03')

species(name=u'CH2',
        atoms='H:2 C:1',
        thermo=(NASA([200.00, 1000.00],
                     [ 3.71757846E+00,  1.27391260E-03,  2.17347251E-06,
                      -3.48858500E-09,  1.65208866E-12,  4.58723866E+04,
                       1.75297945E+00]),
                NASA([1000.00, 6000.00],
                     [ 3.14631886E+00,  3.03671259E-03, -9.96474439E-07,
                       1.50483580E-10, -8.57335515E-15,  4.60412605E+04,
                       4.72341711E+00])),
        transport=gas_transport(geom='nonlinear',
                                diam=3.8,
                                well_depth=144.0,
                                rot_relax=1.0),
        note=u'IU3/03')

species(name=u'CH2(S)',
        atoms='H:2 C:1',
        thermo=(NASA([200.00, 1000.00],
                     [ 4.19331325E+00, -2.33105184E-03,  8.15676451E-06,
                      -6.62985981E-09,  1.93233199E-12,  5.03662246E+04,
                      -7.46734310E-01]),
                NASA([1000.00, 6000.00],
                     [ 3.13501686E+00,  2.89593926E-03, -8.16668090E-07,
                       1.13572697E-10, -6.36262835E-15,  5.05040504E+04,
                       4.06030621E+00])),
        transport=gas_transport(geom='nonlinear',
                                diam=3.8,
                                well_depth=144.0,
                                rot_relax=1.0),
        note=u'IU3/03')

species(name=u'CH3',
        atoms='H:3 C:1',
        thermo=(NASA([200.00, 1000.00],
                     [ 3.65717970E+00,  2.12659790E-03,  5.45838830E-06,
                      -6.61810030E-09,  2.46570740E-12,  1.64227160E+04,
                       1.67353540E+00]),
                NASA([1000.00, 6000.00],
                     [ 2.97812060E+00,  5.79785200E-03, -1.97558000E-06,
                       3.07297900E-10, -1.79174160E-14,  1.65095130E+04,
                       4.72247990E+00])),
        transport=gas_transport(geom='nonlinear',
                                diam=3.8,
                                well_depth=144.0,
                                rot_relax=1.0),
        note=u'IU0702')

species(name=u'CH4',
        atoms='H:4 C:1',
        thermo=(NASA([200.00, 1000.00],
                     [ 5.14911468E+00, -1.36622009E-02,  4.91453921E-05,
                      -4.84246767E-08,  1.66603441E-11, -1.02465983E+04,
                      -4.63848842E+00]),
                NASA([1000.00, 6000.00],
                     [ 1.65326226E+00,  1.00263099E-02, -3.31661238E-06,
                       5.36483138E-10, -3.14696758E-14, -1.00095936E+04,
                       9.90506283E+00])),
        transport=gas_transport(geom='nonlinear',
                                diam=3.746,
                                well_depth=141.4,
                                polar=2.6,
                                rot_relax=13.0),
        note=u'g8/99')

species(name=u'CO',
        atoms='C:1 O:1',
        thermo=(NASA([200.00, 1000.00],
                     [ 3.57953350E+00, -6.10353690E-04,  1.01681430E-06,
                       9.07005860E-10, -9.04424490E-13, -1.43440860E+04,
                       3.50840930E+00]),
                NASA([1000.00, 6000.00],
                     [ 3.04848590E+00,  1.35172810E-03, -4.85794050E-07,
                       7.88536440E-11, -4.69807460E-15, -1.42661170E+04,
                       6.01709770E+00])),
        transport=gas_transport(geom='linear',
                                diam=3.65,
                                well_depth=98.1,
                                polar=1.95,
                                rot_relax=1.8),
        note=u'RUS79')

species(name=u'CO2',
        atoms='C:1 O:2',
        thermo=(NASA([200.00, 1000.00],
                     [ 2.35681300E+00,  8.98412990E-03, -7.12206320E-06,
                       2.45730080E-09, -1.42885480E-13, -4.83719710E+04,
                       9.90090350E+00]),
                NASA([1000.00, 6000.00],
                     [ 4.63651110E+00,  2.74145690E-03, -9.95897590E-07,
                       1.60386660E-10, -9.16198570E-15, -4.90249040E+04,
                      -1.93489550E+00])),
        transport=gas_transport(geom='linear',
                                diam=3.763,
                                well_depth=244.0,
                                polar=2.65,
                                rot_relax=2.1),
        note=u'L7/88')

species(name=u'HCO',
        atoms='H:1 C:1 O:1',
        thermo=(NASA([200.00, 1000.00],
                     [ 4.23754610E+00, -3.32075257E-03,  1.40030264E-05,
                      -1.34239995E-08,  4.37416208E-12,  3.87241185E+03,
                       3.30834869E+00]),
                NASA([1000.00, 6000.00],
                     [ 3.92001542E+00,  2.52279324E-03, -6.71004164E-07,
                       1.05615948E-10, -7.43798261E-15,  3.65342928E+03,
                       3.58077056E+00])),
        transport=gas_transport(geom='nonlinear',
                                diam=3.59,
                                well_depth=498.0,
                                rot_relax=2.0),
        note=u'T5/03')

species(name=u'CH2O',
        atoms='H:2 C:1 O:1',
        thermo=(NASA([200.00, 1000.00],
                     [ 4.79372312E+00, -9.90833322E-03,  3.73219990E-05,
                      -3.79285237E-08,  1.31772641E-11, -1.43791953E+04,
                       6.02798058E-01]),
                NASA([1000.00, 6000.00],
                     [ 3.16952665E+00,  6.19320560E-03, -2.25056366E-06,
                       3.65975660E-10, -2.20149458E-14, -1.45486831E+04,
                       6.04207898E+00])),
        transport=gas_transport(geom='nonlinear',
                                diam=3.59,
                                well_depth=498.0,
                                rot_relax=2.0),
        note=u'g8/88')

species(name=u'CH3O',
        atoms='H:3 C:1 O:1',
        thermo=(NASA([200.00, 1000.00],
                     [ 3.71180502E+00, -2.80463306E-03,  3.76550971E-05,
                      -4.73072089E-08,  1.86588420E-11,  1.29569760E+03,
                       6.57240864E+00]),
                NASA([1000.00, 6000.00],
                     [ 4.75779238E+00,  7.44142474E-03, -2.69705176E-06,
                       4.38090504E-10, -2.63537098E-14,  3.78111940E+02,
                      -1.96680028E+00])),
        transport=gas_transport(geom='nonlinear',
                                diam=3.69,
                                well_depth=417.0,
                                dipole=1.7,
                                rot_relax=2.0),
        note=u'IU1/03')

species(name=u'C2H',
        atoms='H:1 C:2',
        thermo=(NASA([200.00, 1000.00],
                     [ 2.89867676E+00,  1.32988489E-02, -2.80733327E-05,
                       2.89484755E-08, -1.07502351E-11,  6.70616050E+04,
                       6.18547632E+00]),
                NASA([1000.00, 6000.00],
                     [ 3.66270248E+00,  3.82492252E-03, -1.36632500E-06,
                       2.13455040E-10, -1.23216848E-14,  6.71683790E+04,
                       3.92205792E+00])),
        transport=gas_transport(geom='linear',
                                diam=4.1,
                                well_depth=209.0,
                                rot_relax=2.5),
        note=u'T5/10')

species(name=u'C2H2',
        atoms='H:2 C:2',
        thermo=(NASA([200.00, 1000.00],
                     [ 8.08679682E-01,  2.33615762E-02, -3.55172234E-05,
                       2.80152958E-08, -8.50075165E-12,  2.63076808E+04,
                       1.39396761E+01]),
                NASA([1000.00, 6000.00],
                     [ 4.65878489E+00,  4.88396667E-03, -1.60828888E-06,
                       2.46974544E-10, -1.38605959E-14,  2.56371042E+04,
                      -3.99838194E+00])),
        transport=gas_transport(geom='linear',
                                diam=4.1,
                                well_depth=209.0,
                                rot_relax=2.5),
        note=u'RGR1/91')

species(name=u'C2H3',
        atoms='H:3 C:2',
        thermo=(NASA([200.00, 1000.00],
                     [ 3.36377642E+00,  2.65765722E-04,  2.79620704E-05,
                      -3.72986942E-08,  1.51590176E-11,  3.44749589E+04,
                       7.91510092E+00]),
                NASA([1000.00, 6000.00],
                     [ 4.15026763E+00,  7.54021341E-03, -2.62997847E-06,
                       4.15974048E-10, -2.45407509E-14,  3.38566380E+04,
                       1.72812235E+00])),
        transport=gas_transport(geom='nonlinear',
                                diam=4.1,
                                well_depth=209.0,
                                rot_relax=1.0),
        note=u'ATcT/A')

species(name=u'C2H4',
        atoms='H:4 C:2',
        thermo=(NASA([200.00, 1000.00],
                     [ 3.95920063E+00, -7.57051373E-03,  5.70989993E-05,
                      -6.91588352E-08,  2.69884190E-11,  5.08977598E+03,
                       4.09730213E+00]),
                NASA([1000.00, 6000.00],
                     [ 3.99182724E+00,  1.04833908E-02, -3.71721342E-06,
                       5.94628366E-10, -3.53630386E-14,  4.26865851E+03,
                      -2.69081762E-01])),
        transport=gas_transport(geom='nonlinear',
                                diam=3.971,
                                well_depth=280.8,
                                rot_relax=1.5),
        note=u'g1/00')

species(name=u'C2H5',
        atoms='H:5 C:2',
        thermo=(NASA([200.00, 1000.00],
                     [ 4.24185905E+00, -3.56905235E-03,  4.82667202E-05,
                      -5.85401009E-08,  2.25804514E-11,  1.29690344E+04,
                       4.44703782E+00]),
                NASA([1000.00, 6000.00],
                     [ 4.32195633E+00,  1.23930542E-02, -4.39680960E-06,
                       7.03519917E-10, -4.18435239E-14,  1.21759475E+04,
                       1.71103809E-01])),
        transport=gas_transport(geom='nonlinear',
                                diam=4.302,
                                well_depth=252.3,
                                rot_relax=1.5),
        note=u'IU1/07')

species(name=u'C2H6',
        atoms='H:6 C:2',
        thermo=(NASA([200.00, 1000.00],
                     [ 4.29142572E+00, -5.50154901E-03,  5.99438458E-05,
                      -7.08466469E-08,  2.68685836E-11, -1.15222056E+04,
                       2.66678994E+00]),
                NASA([1000.00, 6000.00],
                     [ 4.04666411E+00,  1.53538802E-02, -5.47039485E-06,
                       8.77826544E-10, -5.23167531E-14, -1.24473499E+04,
                      -9.68698313E-01])),
        transport=gas_transport(geom='nonlinear',
                                diam=4.302,
                                well_depth=252.3,
                                rot_relax=1.5),
        note=u'g8/88')

species(name=u'HCCO',
        atoms='H:1 C:2 O:1',
        thermo=(NASA([200.00, 1000.00],
                     [ 1.87607969E+00,  2.21205418E-02, -3.58869325E-05,
                       3.05402541E-08, -1.01281069E-11,  2.01633840E+04,
                       1.36968290E+01]),
                NASA([1000.00, 6000.00],
                     [ 5.91479333E+00,  3.71408730E-03, -1.30137010E-06,
                       2.06473345E-10, -1.21476759E-14,  1.93596301E+04,
                      -5.50567269E+00])),
        transport=gas_transport(geom='nonlinear',
                                diam=2.5,
                                well_depth=150.0,
                                rot_relax=1.0),
        note=u'T4/09')

species(name=u'CH2CO',
        atoms='H:2 C:2 O:1',
        thermo=(NASA([200.00, 1000.00],
                     [ 2.13241136E+00,  1.81319455E-02, -1.74093315E-05,
                       9.35336040E-09, -2.01724844E-12, -7.14808520E+03,
                       1.33807969E+01]),
                NASA([1000.00, 6000.00],
                     [ 5.75871449E+00,  6.35124053E-03, -2.25955361E-06,
                       3.62321512E-10, -2.15855515E-14, -8.08533464E+03,
                      -4.96490444E+00])),
        transport=gas_transport(geom='nonlinear',
                                diam=3.97,
                                well_depth=436.0,
                                rot_relax=2.0),
        note=u'g4/02')

species(name=u'CH3CO',
        atoms='H:3 C:2 O:1',
        thermo=(NASA([200.00, 1000.00],
                     [ 4.03587050E+00,  8.77294870E-04,  3.07100100E-05,
                      -3.92475650E-08,  1.52968690E-11, -2.68207380E+03,
                       7.86176820E+00]),
                NASA([1000.00, 6000.00],
                     [ 5.31371650E+00,  9.17377930E-03, -3.32203860E-06,
                       5.39474560E-10, -3.24523680E-14, -3.64504140E+03,
                      -1.67575580E+00])),
        transport=gas_transport(geom='nonlinear',
                                diam=3.97,
                                well_depth=436.0,
                                rot_relax=2.0),
        note=u'IU2/03')

species(name=u'H2CC',
        atoms='H:2 C:2',
        thermo=(NASA([200.00, 1000.00],
                     [ 3.28154941E+00,  6.97642650E-03, -2.38527914E-06,
                      -1.21077631E-09,  9.82041734E-13,  4.83191706E+04,
                       5.92035686E+00]),
                NASA([1000.00, 6000.00],
                     [ 4.27807305E+00,  4.75622626E-03, -1.63007378E-06,
                       2.54622680E-10, -1.48860086E-14,  4.80140478E+04,
                       6.39978600E-01])),
        transport=gas_transport(geom='nonlinear',
                                diam=4.1,
                                well_depth=209.0,
                                rot_relax=2.5),
        note=u'RL12/89')

species(name=u'PC3H4',
        atoms='H:4 C:3',
        thermo=(NASA([200.00, 1000.00],
                     [ 2.68038690E+00,  1.57996510E-02,  2.50705960E-06,
                      -1.36576230E-08,  6.61542850E-12,  2.08023740E+04,
                       9.87693510E+00]),
                NASA([1000.00, 6000.00],
                     [ 6.02524000E+00,  1.13365420E-02, -4.02233910E-06,
                       6.43760630E-10, -3.82996350E-14,  1.96209420E+04,
                      -8.60437850E+00])),
        transport=gas_transport(geom='nonlinear',
                                diam=4.76,
                                well_depth=252.0,
                                rot_relax=1.0),
        note=u'T2/90')

species(name=u'C3H3',
        atoms='H:3 C:3',
        thermo=(NASA([200.00, 1000.00],
                     [ 1.35110927E+00,  3.27411223E-02, -4.73827135E-05,
                       3.76309808E-08, -1.18540923E-11,  4.07604783E+04,
                       1.52058924E+01]),
                NASA([1000.00, 6000.00],
                     [ 7.14221880E+00,  7.61902005E-03, -2.67459950E-06,
                       4.24914801E-10, -2.51475415E-14,  3.95634427E+04,
                      -1.25848435E+01])),
        transport=gas_transport(geom='nonlinear',
                                diam=4.76,
                                well_depth=252.0,
                                rot_relax=1.0),
        note=u'RT5/97')

species(name=u'N2',
        atoms='N:2',
        thermo=(NASA([200.00, 1000.00],
                     [ 3.53100528E+00, -1.23660988E-04, -5.02999433E-07,
                       2.43530612E-09, -1.40881235E-12, -1.04697628E+03,
                       2.96747038E+00]),
                NASA([1000.00, 6000.00],
                     [ 2.95257637E+00,  1.39690040E-03, -4.92631603E-07,
                       7.86010195E-11, -4.60755204E-15, -9.23948688E+02,
                       5.87188762E+00])),
        transport=gas_transport(geom='linear',
                                diam=3.621,
                                well_depth=97.53,
                                polar=1.76,
                                rot_relax=4.0),
        note=u'G8/02')

#-------------------------------------------------------------------------------
# Reaction data
#-------------------------------------------------------------------------------

# Reaction 1
reaction('H + O2 <=> O + OH', [1.040000e+14, 0.0, 15310.0])
# F=1.15

# Reaction 2
reaction('O + H2 <=> H + OH', [3.820000e+12, 0.0, 7950.0],
         options='duplicate')
# F=1.6

# Reaction 3
reaction('O + H2 <=> H + OH', [8.790000e+14, 0.0, 19180.0],
         options='duplicate')
# F=1.6

# Reaction 4
reaction('OH + H2 <=> H + H2O', [2.160000e+08, 1.51, 3437.0])
# F=1.2

# Reaction 5
reaction('2 OH <=> O + H2O', [3.350000e+04, 2.42, -1928.0])
# F=1.4

# Reaction 6
three_body_reaction('H2 + M <=> 2 H + M', [4.580000e+19, -1.4, 104390.0],
                    efficiencies='CO2:3.8 CO:1.9 H2:2.5 H2O:12.0 CH4:2.0 CH2O:2.5 C2H6:3.0 C2H4:3.0 C2H2:3.0')
# F=3

# Reaction 7
three_body_reaction('2 O + M <=> O2 + M', [6.160000e+15, -0.5, 0.0],
                    efficiencies='CO2:3.8 CO:1.9 H2:2.5 H2O:12.0 CH4:2.0 CH2O:2.5 C2H6:3.0 C2H4:3.0 C2H2:3.0')
# F=3

# Reaction 8
three_body_reaction('O + H + M <=> OH + M', [4.710000e+18, -1.0, 0.0],
                    efficiencies='CO2:3.8 CO:1.9 H2:2.5 H2O:12.0 CH4:2.0 CH2O:2.5 C2H6:3.0 C2H4:3.0 C2H2:3.0')
# F=5

# Reaction 9
three_body_reaction('H2O + M <=> H + OH + M', [6.060000e+27, -3.322, 120800.0],
                    efficiencies='CO2:3.8 CO:1.9 H2:3.0 O2:1.5 H2O:0.0 CH4:7.0 CH2O:2.5 C2H6:3.0 N2:2.0 C2H4:3.0 C2H2:3.0')
# F=3.2

# Reaction 10
reaction('H2O + H2O <=> H + OH + H2O', [1.010000e+26, -2.44, 120200.0])
# !F=1.5

# Reaction 11
falloff_reaction('H + O2 (+ M) <=> HO2 (+ M)',
                 kf=[4.650000e+12, 0.44, 0.0],
                 kf0=[6.370000e+20, -1.72, 525.0],
                 efficiencies='CO2:3.8 CO:1.9 H2:2.0 O2:0.78 H2O:14.0 CH4:2.0 CH2O:2.5 C2H6:3.0 C2H4:3.0 C2H2:3.0',
                 falloff=Troe(A=0.5, T3=30.0, T1=90000.0, T2=90000.0))
# F=2
# F=2
# !

# Reaction 12
reaction('HO2 + H <=> H2 + O2', [3.680000e+06, 2.087, -1455.0])
# F=2

# Reaction 13
reaction('HO2 + H <=> 2 OH', [7.080000e+13, 0.0, 300.0])
# F=2

# Reaction 14
reaction('HO2 + H <=> O + H2O', [1.450000e+12, 0.0, 0.0])
# F=3

# Reaction 15
reaction('HO2 + O <=> OH + O2', [1.630000e+13, 0.0, -445.0])
# F=3

# Reaction 16
reaction('HO2 + OH <=> H2O + O2', [7.000000e+12, 0.0, -1093.0],
         options='duplicate')
# F=1.6

# Reaction 17
reaction('HO2 + OH <=> H2O + O2', [4.500000e+14, 0.0, 10930.0],
         options='duplicate')
# F=1.35

# Reaction 18
falloff_reaction('CO + O (+ M) <=> CO2 (+ M)',
                 kf=[1.060000e+13, -0.308, 6943.0],
                 kf0=[1.400000e+21, -2.1, 5500.0],
                 efficiencies='CO2:3.8 CO:1.9 H2:2.5 H2O:12.0 CH4:2.0 CH2O:2.5 C2H6:3.0 C2H4:3.0 C2H2:3.0')
# !F=3
# F=3

# Reaction 19
reaction('CO + O2 <=> O + CO2', [2.530000e+12, 0.0, 47700.0])
# F=10

# Reaction 20
reaction('CO + OH <=> H + CO2', [7.050000e+04, 2.053, -356.0],
         options='duplicate')
# F=1.2

# Reaction 21
reaction('CO + OH <=> H + CO2', [5.760000e+12, -0.664, 332.0],
         options='duplicate')
# F=1.5

# Reaction 22
reaction('CO + HO2 <=> OH + CO2', [1.570000e+05, 2.18, 17944.0])
# F=2

# Reaction 23
three_body_reaction('HCO + M <=> H + CO + M', [4.800000e+17, -1.2, 17734.0],
                    efficiencies='CO2:2.0 CO:1.5 H2O:12.0 CH4:2.0 CH2O:2.5 C2H6:3.0 C2H4:3.0 C2H2:3.0')
# F=1.7

# Reaction 24
reaction('HCO + H <=> H2 + CO', [9.030000e+13, 0.0, 0.0])
# F=2.5

# Reaction 25
reaction('HCO + O <=> OH + CO', [3.010000e+13, 0.0, 0.0])
# F=2

# Reaction 26
reaction('HCO + O <=> H + CO2', [3.010000e+13, 0.0, 0.0])
# F=2

# Reaction 27
reaction('HCO + OH <=> H2O + CO', [1.080000e+14, 0.0, 0.0])
# F=2

# Reaction 28
reaction('HCO + O2 <=> HO2 + CO', [6.920000e+06, 1.9, -1370.0])
# !F=2

# Reaction 29
reaction('HCO + HO2 => CO2 + OH + H', [3.010000e+13, 0.0, 0.0])
# !F=5

# Reaction 30
reaction('CH + O <=> H + CO', [5.700000e+13, 0.0, 0.0])
# F=3.2

# Reaction 31
reaction('CH + OH <=> H + HCO', [3.000000e+13, 0.0, 0.0])
# F=3

# Reaction 32
reaction('CH + H2 <=> H + CH2', [1.750000e+14, 0.0, 3320.0])
# F=3

# Reaction 33
falloff_reaction('CH + H2 (+ M) <=> CH3 (+ M)',
                 kf=[5.130000e+13, 0.15, 0.0],
                 kf0=[2.430000e+22, -1.6, 0.0],
                 efficiencies='CO2:2.0 CO:1.5 H2:2.0 H2O:6.0 CH4:2.0 CH2O:2.5 C2H6:3.0 C2H4:3.0 C2H2:3.0',
                 falloff=Troe(A=0.514, T3=152.0, T1=22850.0, T2=10350.0))
# F=2
# F=2

# Reaction 34
reaction('CH + H2O <=> H + CH2O', [3.430000e+12, 0.0, -884.0])
# F=3

# Reaction 35
reaction('CH + O2 <=> O + HCO', [1.840000e+08, 1.43, 1200.0])
# F=1.6

# Reaction 36
reaction('CH + O2 <=> CO2 + H', [2.770000e+08, 1.43, 1200.0])
# F=1.6

# Reaction 37
reaction('CH + O2 <=> CO + OH', [1.840000e+08, 1.43, 1200.0])
# F=1.6

# Reaction 38
reaction('CH + O2 => O + H + CO', [2.770000e+08, 1.43, 1200.0])
# F=1.6

# Reaction 39
falloff_reaction('CH + CO (+ M) <=> HCCO (+ M)',
                 kf=[1.020000e+15, -0.4, 0.0],
                 kf0=[3.260000e+24, -2.5, 0.0],
                 efficiencies='CO2:2.0 CO:1.5 H2:2.0 H2O:6.0 CH4:2.0 CH2O:2.5 C2H6:3.0 C2H4:3.0 C2H2:3.0',
                 falloff=Troe(A=0.4, T3=30.0, T1=90000.0, T2=90000.0))
# F=2
# F=2

# Reaction 40
reaction('CH + CO2 <=> HCO + CO', [6.380000e+07, 1.51, -715.0])
# F=1.7

# Reaction 41
falloff_reaction('CH2 + H (+ M) <=> CH3 (+ M)',
                 kf=[2.130000e+13, 0.32, 0.0],
                 kf0=[1.390000e+34, -5.04, 7400.0],
                 efficiencies='CO2:2.0 CO:1.5 H2:2.0 H2O:6.0 CH4:2.0 CH2O:2.5 C2H6:3.0 C2H4:3.0 C2H2:3.0',
                 falloff=Troe(A=0.405, T3=258.0, T1=2811.0, T2=9908.0))
# F=2.5

# Reaction 42
reaction('CH2 + O => 2 H + CO', [8.000000e+13, 0.0, 0.0])
# F=2.5

# Reaction 43
reaction('CH2 + OH <=> H + CH2O', [2.860000e+13, 0.12, -162.0])
# F=3

# Reaction 44
reaction('CH2 + OH <=> CH + H2O', [8.630000e+05, 2.02, 6776.0])
# F=3

# Reaction 45
reaction('CH2 + HO2 <=> OH + CH2O', [2.000000e+13, 0.0, 0.0])
# F=6

# Reaction 46
reaction('CH2 + H2 <=> H + CH3', [4.410000e+05, 2.3, 7351.0])
# !F=4

# Reaction 47
reaction('CH2 + O2 => OH + H + CO', [2.790000e+12, 0.0, 1000.0])
# F=2

# Reaction 48