/*---------------------------------------------------------------------------*\
| =========                 |                                                 |
| \\      /  F ield         | OpenFOAM: The Open Source CFD Toolbox           |
|  \\    /   O peration     | Version:  1.0                                   |
|   \\  /    A nd           | Web:      http://www.openfoam.org               |
|    \\/     M anipulation  |                                                 |
\*---------------------------------------------------------------------------*/
FoamFile
{
version                         2.0;
format                          ascii;
class                           dictionary;
object                          binaryDiff;
}

// Scheme: transport fitting

H-H
{
Diff1	-1.419E+01	;
Diff2	3.970E+00	;
Diff3	-2.987E-01	;
Diff4	1.287E-02	;
}
H2-H
{
Diff1	-1.128E+01	;
Diff2	2.716E+00	;
Diff3	-1.418E-01	;
Diff4	6.310E-03	;
}
H2-H2
{
Diff1	-9.840E+00	;
Diff2	1.977E+00	;
Diff3	-4.367E-02	;
Diff4	1.967E-03	;
}
O-H
{
Diff1	-1.314E+01	;
Diff2	3.366E+00	;
Diff3	-2.248E-01	;
Diff4	9.848E-03	;
}
O-H2
{
Diff1	-1.098E+01	;
Diff2	2.319E+00	;
Diff3	-8.959E-02	;
Diff4	4.021E-03	;
}
O-O
{
Diff1	-1.303E+01	;
Diff2	2.832E+00	;
Diff3	-1.568E-01	;
Diff4	6.957E-03	;
}
OH-H
{
Diff1	-1.314E+01	;
Diff2	3.366E+00	;
Diff3	-2.248E-02	;
Diff4	9.848E-03	;
}
OH-H2
{
Diff1	-1.098E+01	;
Diff2	2.319E+00	;
Diff3	-8.959E-02	;
Diff4	4.021E-03	;
}
OH-O
{
Diff1	-1304E+01	;
Diff2	2.832E+00	;
Diff3	-1.568E-01	;
Diff4	6.958E-03	;
}
OH-OH
{
Diff1	-1.306E+01	;
Diff2	2.832E+00	;
Diff3	-1.568E-01	;
Diff4	6.958E-03	;
}
H2O-H
{
Diff1	-1.826E+01	;
Diff2	5.037E+00	;
Diff3	-4.069E-01	;
Diff4	1.633E-02	;
}
H2O-H2
{
Diff1	-1.635E+01	;
Diff2	4.294E+00	;
Diff3	-3.367E-01	;
Diff4	1.434E-02	;
}
H2O-O
{
Diff1	-1.835E+01	;
Diff2	4.700E+00	;
Diff3	-3.805E-01	;
Diff4	1.587E-02	;
}
H2O-OH
{
Diff1	-1.837E+01	;
Diff2	4.700E+00	;
Diff3	-3.805E-01	;
Diff4	1.587E-02	;
}
H2O-H2O
{
Diff1	-1.552E+01	;
Diff2	2.504E+00	;
Diff3	1.444E-01	;
Diff4	-5.078E-03	;
}
O2-H
{
Diff1	-1.424E+01	;
Diff2	3.661E+00	;
Diff3	-2.614E-01	;
Diff4	1.136E-02	;
}
O2-H2
{
Diff1	-1.173E+01	;
Diff2	2.502E+00	;
Diff3	-1.137E-01	;
Diff4	5.083E-03	;
}
O2-O
{
Diff1	-1.410E+01	;
Diff2	3.087E+00	;
Diff3	-1.894E-01	;
Diff4	8.359E-03	;
}
O2-OH
{
Diff1	-1.412E+01	;
Diff2	3.087E+00	;
Diff3	-1.895E-01	;
Diff4	8.359E-03	;
}
O2-H2O
{
Diff1	-1.987E+01	;
Diff2	5.007E+00	;
Diff3	-4.061E-01	;
Diff4	1.641E-02	;
}
O2-O2
{
Diff1	-1.527E+01	;
Diff2	3.361E+00	;
Diff3	-2.241E-01	;
Diff4	9.819E-03	;
}
HO2-H
{
Diff1	-1.424E+01	;
Diff2	3.661E+00	;
Diff3	-2.614E-01	;
Diff4	1.136E-02	;
}
HO2-H2
{
Diff1	-1.173E+01	;
Diff2	2.502E+00	;
Diff3	-1.137E-01	;
Diff4	5.083E-03	;
}
HO2-O
{
Diff1	-1.411E+01	;
Diff2	3.087E+00	;
Diff3	-1.895E-01	;
Diff4	8.359E-03	;
}
HO2-OH
{
Diff1	-1.413E+01	;
Diff2	3.087E+00	;
Diff3	-1.895E-01	;
Diff4	8.359E-03	;
}
HO2-H2O
{
Diff1	-1.948E+01	;
Diff2	4.906E+00	;
Diff3	-3.996E-01	;
Diff4	1.629E-02	;
}
HO2-O2
{
Diff1	-1.527E+01	;
Diff2	3.361E+00	;
Diff3	-2.241E-01	;
Diff4	9.819E-03	;
}
HO2-HO2
{
Diff1	-1.528E+01	;
Diff2	3.361E+00	;
Diff3	-2.241E-01	;
Diff4	9.819E-03	;
}
H2O2-H
{
Diff1	-1.424E+01	;
Diff2	3.661E+00	;
Diff3	-2.614E-01	;
Diff4	1.136E-02	;
}
H2O2-H2
{
Diff1	-1.173+01	;
Diff2	2.502E+00	;
Diff3	-1.137E-01	;
Diff4	5.083E-03	;
}
H2O2-O
{
Diff1	-1.411E+01	;
Diff2	3.087E+00	;
Diff3	-1.895E-01	;
Diff4	8.359E-03	;
}
H2O2-OH
{
Diff1	-1.413E+01	;
Diff2	3.087E+00	;
Diff3	-1.895E-01	;
Diff4	8.359E-03	;
}
H2O2-H2O
{
Diff1	-1.948E+01	;
Diff2	4.906E+00	;
Diff3	-3.996E-01	;
Diff4	1.639E-02	;
}
H2O2-O2
{
Diff1	-1.528E+01	;
Diff2	3.361E+00	;
Diff3	-2.241E-01	;
Diff4	9.819E-03	;
}
H2O2-HO2
{
Diff1	-1.529E+01	;
Diff2	3.361E+00	;
Diff3	-2.241E-01	;
Diff4	9.819E-03	;
}
H2O2-H2O2
{
Diff1	-1.530E+01	;
Diff2	3.361E+00	;
Diff3	-2.241E-01	;
Diff4	9.819E-03	;
}
AR-H
{
Diff1	-1.490E+01	;
Diff2	3.908E+00	;
Diff3	-2.914E-01	;
Diff4	1.258E-02	;
}
AR-H2
{
Diff1	-1.214E+01	;
Diff2	2.671E+00	;
Diff3	-1.359E-01	;
Diff4	6.052E-03	;
}
AR-O
{
Diff1	-1.469E+01	;
Diff2	3.308E+00	;
Diff3	-2.174E-01	;
Diff4	9.538E-03	;
}
AR-OH
{
Diff1	-1.472E+01	;
Diff2	3.308E+00	;
Diff3	-2.174E-01	;
Diff4	9.538E-03	;
}
AR-H2O
{
Diff1	-1.993E+01	;
Diff2	5.0175E+00	;
Diff3	-4.065E-01	;
Diff4	1.639E-02	;
}
AR-O2
{
Diff1	-1.594E+01	;
Diff2	3.600E+00	;
Diff3	-2.539E-01	;
Diff4	1.106E-02	;
}
AR-HO2
{
Diff1	-1.595E+01	;
Diff2	3.600E+00	;
Diff3	-2.539E-01	;
Diff4	1.106E-02	;
}
AR-H2O2
{
Diff1	-1.596E+01	;
Diff2	3.600E+00	;
Diff3	-2.534E-01	;
Diff4	1.106E-02	;
}
AR-AR
{
Diff1	-1.665E+01	;
Diff2	3.846E+00	;
Diff3	-2.839E-01	;
Diff4	1.228E-02	;
}
